testData/tamu2000/pfcases_100_zone2326/Equ_tx2000_hr_5639_mod_v23_zone23_26_pslf.raw
0  100.000 
THIS IS A SYNTHETIC POWER SYSTEM MODEL THAT DOES NOT REPRESE
DATA RESEARCH PROJECT AND CONTAINS NO CEII.
1012,  1,  -4.379,  -4.875,  0.000,  0.000,  1,  1.02998,  -75.9154,  'SANDERSO',  115.00,  9
1033,  2,  26.730,  -4.570,  0.000,  0.000,  1,  1.00979,  -67.7248,  'MCCAMEY ',  230.00,  9
1046,  1,  2.824,  -1.474,  0.000,  0.000,  1,  1.02996,  -73.8233,  'OZONA 0 ',  115.00,  9
1048,  2,  79.140,  -9.594,  0.000,  0.000,  1,  1.00000,  -61.6480,  'MONAHANS',  18.000,  9
1049,  2,  49.966,  -3.002,  0.000,  0.000,  1,  1.00000,  -58.7832,  'MONAHANS',  18.000,  9
1053,  2,  55.473,  -10.399,  0.000,  0.000,  1,  1.01028,  -64.7712,  'MONAHANS',  230.00,  9
1072,  3,  59.670,  -3.626,  0.000,  0.000,  1,  1.01000,  -63.0348,  'ODESSA 1',  18.000,  9
1073,  2,  39.565,  -3.234,  0.000,  0.000,  1,  1.01000,  -62.1693,  'ODESSA 1',  18.000,  9
1074,  2,  41.346,  -1.289,  0.000,  0.000,  1,  1.01000,  -62.3992,  'ODESSA 1',  18.000,  9
1075,  2,  50.662,  -1.698,  0.000,  0.000,  1,  1.01000,  -63.2036,  'ODESSA 1',  18.000,  9
1076,  2,  102.528,  -5.952,  0.000,  0.000,  1,  1.01000,  -64.8231,  'ODESSA 1',  18.000,  9
1077,  2,  42.583,  -1.700,  0.000,  0.000,  1,  1.01000,  -62.5239,  'ODESSA 1',  18.000,  9
1081,  2,  64.116,  -21.873,  0.000,  0.000,  1,  1.01375,  -65.5113,  'ODESSA 1',  230.00,  9
2004,  2,  122.357,  -27.901,  0.000,  0.000,  2,  1.02485,  -61.5028,  'SAVOY 2 ',  13.800,  11
2005,  2,  104.870,  -24.530,  0.000,  0.000,  2,  1.02387,  -61.3409,  'SAVOY 3 ',  13.800,  11
2006,  2,  69.303,  -16.344,  0.000,  0.000,  2,  1.02000,  -60.7187,  'SAVOY 4 ',  13.800,  11
2024,  2,  61.694,  -20.193,  0.000,  0.000,  2,  1.02829,  -61.1578,  'PARIS 2 ',  13.800,  11
2057,  3,  161.111,  -94.880,  0.000,  0.000,  2,  0.99000,  -61.8178,  'WICHITA ',  18.000,  11
2115,  2,  37.467,  -13.587,  0.000,  0.000,  2,  1.02518,  -60.5328,  'PARIS 1 ',  13.800,  11
2116,  2,  76.094,  -24.625,  0.000,  0.000,  2,  1.02875,  -61.0928,  'PARIS 1 ',  13.800,  11
2117,  2,  34.667,  -11.980,  0.000,  0.000,  2,  1.02370,  -60.3524,  'PARIS 1 ',  13.800,  11
2118,  2,  32.539,  -11.370,  0.000,  0.000,  2,  1.02278,  -60.2050,  'PARIS 1 ',  13.800,  11
2119,  2,  56.974,  -20.133,  0.000,  0.000,  2,  1.02789,  -60.9613,  'PARIS 1 ',  13.800,  11
2120,  2,  32.841,  -11.475,  0.000,  0.000,  2,  1.02323,  -60.2627,  'PARIS 1 ',  13.800,  11
3001,  1,  0.000,  0.000,  0.000,  0.000,  3,  1.02450,  -69.1588,  'KERRVILL',  230.00,  28
3002,  1,  0.000,  0.000,  0.000,  0.000,  3,  1.02064,  -71.2691,  'KERRVILL',  115.00,  28
3005,  1,  0.000,  0.000,  0.000,  0.000,  3,  1.00077,  -82.0248,  'LEAKEY 0',  115.00,  28
3008,  1,  25.309,  8.012,  0.000,  0.000,  3,  1.02609,  -71.2791,  'COLEMAN ',  115.00,  27
3009,  1,  0.000,  0.000,  0.000,  0.000,  3,  1.03089,  -74.4295,  'SONORA 0',  115.00,  28
3010,  1,  0.000,  0.000,  0.000,  0.000,  3,  1.00916,  -81.9449,  'CAMP WOO',  115.00,  28
3011,  1,  0.000,  0.000,  0.000,  0.000,  3,  1.01501,  -74.1803,  'LLANO 0 ',  115.00,  28
3012,  1,  0.000,  0.000,  0.000,  0.000,  3,  1.00856,  -74.7376,  'WILLOW C',  115.00,  28
3014,  1,  0.000,  0.000,  0.000,  0.000,  3,  1.02841,  -68.6726,  'KINGSLAN',  115.00,  28
3018,  1,  -35.173,  -4.931,  0.000,  0.000,  3,  1.03132,  -71.8378,  'CHRISTOV',  230.00,  27
3019,  1,  102.748,  4.955,  0.000,  0.000,  3,  1.02995,  -72.9154,  'CHRISTOV',  115.00,  27
3024,  1,  0.000,  0.000,  0.000,  0.000,  3,  1.02925,  -73.6115,  'ELDORADO',  115.00,  28
3025,  1,  0.000,  0.000,  0.000,  0.000,  3,  1.02653,  -70.5356,  'SAN SABA',  115.00,  28
3029,  1,  0.000,  0.000,  0.000,  0.000,  3,  1.03585,  -67.2645,  'LOMETA 0',  115.00,  28
3035,  1,  0.000,  0.000,  0.000,  0.000,  3,  1.02614,  -71.7653,  'CHEROKEE',  115.00,  28
3036,  1,  0.000,  0.000,  0.000,  0.000,  3,  1.02649,  -71.7275,  'RICHLAND',  115.00,  28
3045,  2,  11.829,  0.239,  0.000,  0.000,  3,  1.04000,  -59.0374,  'SILVER 4',  13.800,  27
3048,  1,  124.410,  -335.488,  0.000,  0.000,  3,  1.05580,  -63.0809,  'ROSCOE 5',  500.00,  27
3050,  1,  0.000,  -20.355,  0.000,  0.000,  3,  1.02999,  -76.8087,  'DEL RIO ',  230.00,  28
3051,  1,  0.000,  -20.826,  0.000,  0.000,  3,  1.02042,  -79.4730,  'DEL RIO ',  115.00,  28
3052,  1,  0.000,  0.000,  0.000,  0.000,  3,  1.01401,  -77.7722,  'HUNT 0  ',  115.00,  28
3066,  1,  0.000,  0.000,  0.000,  0.000,  3,  1.02421,  -73.3159,  'BRADY 0 ',  115.00,  28
3073,  1,  0.000,  0.000,  0.000,  0.000,  3,  1.00324,  -84.1586,  'BRACKETT',  115.00,  28
3074,  1,  -11.470,  6.281,  0.000,  0.000,  3,  0.99969,  -83.7679,  'BRACKETT',  13.800,  28
3075,  1,  0.000,  0.000,  0.000,  0.000,  3,  1.02641,  -74.9570,  'MASON 0 ',  115.00,  28
3076,  1,  0.000,  0.000,  0.000,  0.000,  3,  1.00516,  -83.4719,  'BRACKETT',  115.00,  28
3093,  1,  0.000,  0.000,  0.000,  0.000,  3,  1.01159,  -80.4680,  'ROCKSPRI',  115.00,  28
3101,  1,  0.000,  0.000,  0.000,  0.000,  3,  1.02507,  -68.1337,  'BUCHANAN',  115.00,  28
3104,  1,  0.000,  0.000,  0.000,  0.000,  3,  1.02081,  -67.2330,  'BUCHANAN',  115.00,  28
3105,  1,  -5.303,  0.740,  0.000,  0.000,  3,  1.02052,  -66.8486,  'BUCHANAN',  13.200,  28
3106,  3,  0.000,  0.000,  0.000,  0.000,  3,  1.00000,  -65.4080,  'BUCHANAN',  13.200,  28
3107,  1,  0.000,  0.000,  0.000,  0.000,  3,  1.01542,  -74.1713,  'INGRAM 0',  115.00,  28
3108,  1,  0.000,  0.000,  0.000,  0.000,  3,  1.02299,  -68.3082,  'KEMPNER ',  115.00,  28
3119,  1,  0.000,  0.000,  0.000,  0.000,  3,  1.02360,  -84.4166,  'BRACKETT',  115.00,  28
3120,  2,  0.000,  0.000,  0.000,  0.000,  3,  1.02360,  -84.4166,  'BRACKETT',  13.800,  28
3123,  1,  0.000,  0.000,  0.000,  0.000,  3,  0.99819,  -85.0502,  'UVALDE 0',  115.00,  28
3124,  1,  0.000,  -27.506,  0.000,  0.000,  3,  1.03001,  -72.4760,  'FREDERIC',  115.00,  28
3126,  1,  0.000,  -45.462,  0.000,  0.000,  3,  1.00517,  -84.8490,  'SABINAL ',  115.00,  28
3132,  1,  0.000,  0.000,  0.000,  0.000,  3,  1.02533,  -74.3032,  'EDEN 0  ',  115.00,  28
3138,  1,  0.000,  0.000,  0.000,  0.000,  3,  1.02910,  -75.0716,  'MENARD 0',  115.00,  28
3142,  1,  32.295,  -6.808,  0.000,  0.000,  3,  1.02994,  -74.6381,  'GOODFELL',  115.00,  27
3143,  1,  0.000,  -8.280,  0.000,  0.000,  3,  1.02994,  -72.6555,  'SANTA AN',  115.00,  28
3144,  1,  0.000,  0.000,  0.000,  0.000,  3,  1.02707,  -73.5977,  'ROWENA 0',  115.00,  28
3146,  1,  0.000,  -0.610,  0.000,  0.000,  3,  1.02995,  -75.0063,  'JUNCTION',  115.00,  28
3147,  1,  0.001,  -4.800,  0.000,  0.000,  3,  1.02998,  -68.0941,  'LAMPASAS',  115.00,  28
4002,  1,  0.000,  0.000,  0.000,  0.000,  4,  1.01687,  -84.3437,  'LAUGHLIN',  115.00,  20
4004,  1,  0.000,  0.000,  0.000,  0.000,  4,  1.02936,  -87.2561,  'LAREDO 7',  230.00,  20
4005,  1,  0.000,  -54.384,  0.000,  0.000,  4,  1.03007,  -89.4756,  'LAREDO 7',  115.00,  20
4006,  1,  0.000,  0.000,  0.000,  0.000,  4,  1.02935,  -87.5028,  'BRUNI 2 ',  115.00,  20
4008,  1,  0.000,  0.000,  0.000,  0.000,  4,  1.01618,  -70.1037,  'POTEET 0',  115.00,  20
4011,  1,  25.336,  -8.472,  0.000,  0.000,  4,  1.02426,  -91.4568,  'HEBBRONV',  115.00,  19
4014,  1,  0.000,  0.000,  0.000,  0.000,  4,  1.03009,  -83.4524,  'EAGLE PA',  230.00,  20
4015,  1,  0.000,  -26.507,  0.000,  0.000,  4,  1.03005,  -84.3421,  'EAGLE PA',  115.00,  20
4016,  1,  0.000,  0.000,  0.000,  0.000,  4,  1.02267,  -70.2566,  'CHARLOTT',  115.00,  20
4022,  1,  0.000,  0.000,  0.000,  0.000,  4,  1.01951,  -87.1232,  'ENCINAL ',  115.00,  20
4023,  1,  0.000,  0.000,  0.000,  0.000,  4,  1.02093,  -69.9021,  'MOORE 0 ',  115.00,  20
4024,  1,  0.000,  0.000,  0.000,  0.000,  4,  1.02708,  -69.2808,  'CHRISTIN',  230.00,  20
4025,  1,  0.000,  0.000,  0.000,  0.000,  4,  1.02560,  -70.1284,  'CHRISTIN',  115.00,  20
4026,  2,  0.000,  0.000,  0.000,  0.000,  4,  1.03000,  -67.0661,  'CHRISTIN',  13.800,  20
4029,  1,  15.925,  5.178,  0.000,  0.000,  4,  1.00916,  -63.7618,  'FANNIN 1',  115.00,  21
4030,  3,  -2.696,  0.112,  0.000,  0.000,  4,  1.01000,  -60.5257,  'FANNIN 2',  13.800,  21
4031,  1,  0.000,  0.000,  0.000,  0.000,  4,  1.02266,  -92.1126,  'SAN YGNA',  115.00,  20
4033,  1,  0.000,  0.000,  0.000,  0.000,  4,  1.01672,  -90.5052,  'LAREDO 6',  115.00,  20
4036,  1,  0.000,  0.000,  0.000,  0.000,  4,  1.01076,  -79.3777,  'CRYSTAL ',  115.00,  20
4043,  1,  42.286,  -3.942,  0.000,  0.000,  4,  1.01343,  -96.8961,  'FALCON H',  115.00,  19
4058,  2,  28.031,  2.417,  0.000,  0.000,  4,  1.03000,  -84.0508,  'GREGORY ',  13.800,  21
4059,  2,  27.143,  2.028,  0.000,  0.000,  4,  1.03000,  -84.2689,  'GREGORY ',  13.800,  21
4060,  2,  24.568,  1.682,  0.000,  0.000,  4,  1.03000,  -83.4436,  'GREGORY ',  13.800,  21
4061,  2,  28.640,  2.482,  0.000,  0.000,  4,  1.03000,  -83.8068,  'GREGORY ',  13.800,  21
4062,  2,  28.865,  1.561,  0.000,  0.000,  4,  1.03000,  -83.4077,  'GREGORY ',  13.800,  21
4063,  2,  28.165,  2.809,  0.000,  0.000,  4,  1.03000,  -83.7741,  'GREGORY ',  13.800,  21
4073,  1,  1444.456,  -261.631,  0.000,  0.000,  4,  1.02350,  -102.7201,  'MISSION ',  230.00,  19
4082,  2,  22.678,  -0.661,  0.000,  0.000,  4,  1.04000,  -86.5579,  'CORPUS C',  13.800,  21
4083,  2,  24.124,  -0.803,  0.000,  0.000,  4,  1.04000,  -86.8582,  'CORPUS C',  13.800,  21
4084,  2,  46.193,  -4.391,  0.000,  0.000,  4,  1.04000,  -88.4513,  'CORPUS C',  13.800,  21
4085,  2,  53.949,  -5.234,  0.000,  0.000,  4,  1.04000,  -87.9960,  'CORPUS C',  13.800,  21
4101,  1,  0.000,  0.000,  0.000,  0.000,  4,  1.01424,  -90.6443,  'LAREDO 3',  115.00,  20
4113,  1,  0.000,  0.000,  0.000,  0.000,  4,  1.02830,  -88.1546,  'LAREDO 1',  230.00,  20
4114,  1,  0.000,  0.000,  0.000,  0.000,  4,  1.02275,  -89.5342,  'LAREDO 1',  115.00,  20
4115,  2,  0.000,  0.000,  0.000,  0.000,  4,  1.04000,  -87.0216,  'LAREDO 1',  13.800,  20
4116,  2,  0.000,  0.000,  0.000,  0.000,  4,  1.04000,  -86.9680,  'LAREDO 1',  13.800,  20
4117,  1,  0.000,  0.000,  0.000,  0.000,  4,  1.02413,  -70.5013,  'JOURDANT',  115.00,  20
4118,  1,  68.295,  -10.446,  0.000,  0.000,  4,  1.00801,  -94.1730,  'GEORGE W',  115.00,  21
4125,  1,  62.450,  5.992,  0.000,  0.000,  4,  0.99348,  -73.4085,  'PETTUS 0',  115.00,  21
4129,  1,  0.000,  0.000,  0.000,  0.000,  4,  1.03337,  -93.5465,  'PREMONT ',  115.00,  20
4130,  1,  0.000,  -9.391,  0.000,  0.000,  4,  1.03011,  -94.3643,  'FREER 0 ',  115.00,  20
4131,  1,  -0.002,  -94.694,  0.000,  0.000,  4,  1.03004,  -74.5898,  'PEARSALL',  230.00,  20
4132,  1,  0.000,  0.000,  0.000,  0.000,  4,  1.02664,  -75.6906,  'PEARSALL',  115.00,  20
4133,  2,  0.000,  0.000,  0.000,  0.000,  4,  1.03004,  -74.5898,  'PEARSALL',  20.000,  20
4134,  2,  0.000,  0.000,  0.000,  0.000,  4,  1.03004,  -74.5898,  'PEARSALL',  20.000,  20
4135,  2,  0.000,  0.000,  0.000,  0.000,  4,  1.03004,  -74.5898,  'PEARSALL',  20.000,  20
4136,  2,  0.000,  0.000,  0.000,  0.000,  4,  1.03004,  -74.5898,  'PEARSALL',  20.000,  20
4137,  2,  0.000,  0.000,  0.000,  0.000,  4,  1.03004,  -74.5898,  'PEARSALL',  20.000,  20
4138,  2,  0.000,  0.000,  0.000,  0.000,  4,  1.03004,  -74.5898,  'PEARSALL',  20.000,  20
4140,  1,  164.366,  -64.547,  0.000,  0.000,  4,  1.03263,  -93.2381,  'SARITA 1',  230.00,  21
4143,  1,  0.000,  0.000,  0.000,  0.000,  4,  1.01517,  -78.2593,  'DILLEY 0',  115.00,  20
4146,  1,  0.000,  0.000,  0.000,  0.000,  4,  1.02480,  -88.0445,  'LAREDO 4',  230.00,  20
4147,  1,  0.000,  -105.834,  0.000,  0.000,  4,  1.02885,  -89.6649,  'LAREDO 4',  115.00,  20
4148,  1,  0.000,  0.000,  0.000,  0.000,  4,  1.01275,  -94.8998,  'THREE RI',  115.00,  20
4153,  2,  44.723,  -24.084,  0.000,  0.000,  4,  1.04000,  -95.0802,  'ARMSTRON',  18.000,  21
4160,  2,  93.944,  6.461,  0.000,  0.000,  4,  1.03000,  -87.0574,  'CORPUS C',  13.800,  21
4161,  2,  39.100,  4.662,  0.000,  0.000,  4,  1.03000,  -85.9223,  'CORPUS C',  13.800,  21
4162,  2,  39.539,  3.880,  0.000,  0.000,  4,  1.03000,  -85.9494,  'CORPUS C',  13.800,  21
4172,  1,  0.000,  0.000,  0.000,  0.000,  4,  1.02103,  -71.6127,  'PLEASANT',  115.00,  20
4174,  1,  -0.001,  -36.039,  0.000,  0.000,  4,  1.03001,  -68.7735,  'LYTLE 0 ',  115.00,  20
4175,  1,  0.000,  -13.135,  0.000,  0.000,  4,  1.03009,  -91.2656,  'LAREDO 2',  115.00,  20
4176,  1,  0.000,  0.000,  0.000,  0.000,  4,  1.03659,  -91.7140,  'BRUNI 1 ',  115.00,  20
4177,  1,  -17.239,  -5.699,  0.000,  0.000,  4,  1.04008,  -91.2056,  'BRUNI 1 ',  13.800,  20
4178,  1,  75.618,  -48.404,  0.000,  0.000,  4,  1.01994,  -75.7333,  'GOLIAD 0',  115.00,  21
4179,  1,  0.000,  0.000,  0.000,  0.000,  4,  1.02383,  -94.7786,  'SAN DIEG',  115.00,  20
4187,  1,  0.000,  0.000,  0.000,  0.000,  4,  1.01098,  -84.7632,  'COTULLA ',  115.00,  20
4188,  1,  0.000,  0.000,  0.000,  0.000,  4,  1.02815,  -84.4722,  'QUEMADO ',  115.00,  20
4189,  1,  0.000,  0.000,  0.000,  0.000,  4,  1.00607,  -81.2609,  'CARRIZO ',  115.00,  20
4190,  1,  0.000,  0.000,  0.000,  0.000,  4,  1.01876,  -90.1275,  'LAREDO 5',  115.00,  20
4192,  2,  661.427,  26.552,  0.000,  0.000,  4,  1.02000,  -98.0253,  'BROWNSVI',  230.00,  19
4195,  1,  -10.573,  13.250,  0.000,  0.000,  4,  1.02333,  -80.1218,  'OILTON 0',  500.00,  20
4196,  1,  0.002,  -138.005,  0.000,  0.000,  4,  1.03010,  -83.2926,  'OILTON 1',  230.00,  20
4197,  1,  0.000,  -0.640,  0.000,  0.000,  4,  1.03010,  -86.0204,  'OILTON 2',  115.00,  20
5005,  1,  0.000,  0.000,  0.000,  0.000,  5,  1.01738,  -68.2853,  'LIPAN 0 ',  161.00,  18
5011,  1,  0.000,  0.000,  0.000,  0.000,  5,  0.98454,  -68.6720,  'THORNTON',  161.00,  13
5021,  1,  921.530,  -57.791,  0.000,  0.000,  5,  1.03493,  -63.3646,  'ALEDO 1 ',  500.00,  17
5024,  1,  0.000,  0.000,  0.000,  0.000,  5,  0.98602,  -70.4182,  'GATESVIL',  161.00,  13
5025,  1,  0.000,  0.000,  0.000,  0.000,  5,  1.02905,  -63.9555,  'CLEBURNE',  161.00,  18
5029,  1,  0.000,  0.000,  0.000,  0.000,  5,  1.01288,  -66.7070,  'TROY 0  ',  161.00,  13
5037,  2,  147.507,  -1.847,  0.000,  0.000,  5,  1.02618,  -61.4208,  'DALLAS 1',  13.200,  16
5038,  2,  143.031,  -1.499,  0.000,  0.000,  5,  1.02599,  -61.3739,  'DALLAS 1',  13.200,  16
5039,  2,  330.946,  -7.375,  0.000,  0.000,  5,  1.02852,  -62.2242,  'DALLAS 1',  13.200,  16
5040,  2,  109.802,  -1.783,  0.000,  0.000,  5,  1.02483,  -60.8881,  'DALLAS 1',  13.200,  16
5041,  2,  156.850,  -2.714,  0.000,  0.000,  5,  1.02660,  -61.5095,  'DALLAS 1',  13.200,  16
5042,  2,  133.803,  -1.217,  0.000,  0.000,  5,  1.02563,  -61.2647,  'DALLAS 1',  13.200,  16
5045,  1,  0.000,  0.000,  0.000,  0.000,  5,  1.04729,  -62.1528,  'STEPHENV',  500.00,  18
5046,  1,  0.000,  0.000,  0.000,  0.000,  5,  1.04374,  -63.4333,  'STEPHENV',  161.00,  18
5047,  1,  436.569,  -68.903,  0.000,  0.000,  5,  1.03041,  -61.9892,  'MANSFIEL',  500.00,  17
5054,  1,  97.253,  22.002,  0.000,  0.000,  5,  0.97022,  -70.6166,  'GROESBEC',  161.00,  14
5057,  2,  84.643,  -33.781,  0.000,  0.000,  5,  1.03516,  -60.7855,  'GRAHAM 2',  13.800,  12
5058,  2,  61.622,  -22.862,  0.000,  0.000,  5,  1.03293,  -60.1872,  'GRAHAM 3',  13.800,  12
5063,  1,  2009.045,  -239.439,  0.000,  0.000,  5,  1.03370,  -63.1006,  'ARLINGTO',  500.00,  17
5067,  2,  0.000,  0.000,  0.000,  0.000,  5,  1.03000,  -61.6265,  'ARLINGTO',  13.800,  17
5068,  2,  0.000,  0.000,  0.000,  0.000,  5,  1.03000,  -61.5515,  'ARLINGTO',  13.800,  17
5069,  2,  0.000,  0.000,  0.000,  0.000,  5,  1.03000,  -61.4524,  'ARLINGTO',  13.800,  17
5071,  1,  0.000,  0.000,  0.000,  0.000,  5,  1.02504,  -64.8121,  'WACO 3 0',  161.00,  13
5075,  1,  0.000,  0.000,  0.000,  0.000,  5,  1.00636,  -68.6146,  'EVANT 0 ',  161.00,  18
5079,  1,  0.000,  0.000,  0.000,  0.000,  5,  1.02958,  -65.7564,  'WACO 4 0',  161.00,  13
5080,  1,  0.000,  0.000,  0.000,  0.000,  5,  1.00631,  -68.3130,  'LORENA 0',  161.00,  13
5081,  1,  0.000,  0.000,  0.000,  0.000,  5,  1.02376,  -66.0143,  'FORT HOO',  161.00,  13
5088,  1,  0.000,  0.000,  0.000,  0.000,  5,  1.01009,  -66.9387,  'CLIFTON ',  161.00,  18
5089,  1,  -14.765,  1.186,  0.000,  0.000,  5,  1.00944,  -66.1547,  'CLIFTON ',  13.800,  18
5101,  1,  47.981,  -8.671,  0.000,  0.000,  5,  1.02590,  -69.6674,  'COMANCHE',  161.00,  15
5112,  1,  0.000,  0.000,  0.000,  0.000,  5,  1.01788,  -67.4124,  'HICO 0  ',  161.00,  18
5120,  1,  76.932,  -36.015,  0.000,  0.000,  5,  1.05513,  -63.4035,  'BROWNWOO',  500.00,  15
5123,  1,  0.000,  0.000,  0.000,  0.000,  5,  0.97850,  -69.9461,  'MARLIN 0',  161.00,  13
5124,  1,  0.000,  0.000,  0.000,  0.000,  5,  0.97889,  -69.5504,  'MARLIN 1',  115.00,  13
5127,  1,  0.000,  0.000,  0.000,  0.000,  5,  1.00859,  -69.1893,  'JONESBOR',  161.00,  18
5129,  1,  0.000,  0.000,  0.000,  0.000,  5,  1.03265,  -68.1361,  'GOLDTHWA',  161.00,  18
5131,  1,  0.000,  0.000,  0.000,  0.000,  5,  1.03481,  -63.5001,  'BELTON 0',  500.00,  13
5132,  1,  0.000,  0.000,  0.000,  0.000,  5,  1.03035,  -64.6494,  'BELTON 1',  161.00,  13
5133,  1,  0.000,  0.000,  0.000,  0.000,  5,  1.01385,  -68.4357,  'TOLAR 0 ',  161.00,  18
5137,  1,  0.000,  0.000,  0.000,  0.000,  5,  1.03092,  -63.9006,  'WACO 1 0',  500.00,  13
5138,  1,  0.000,  0.000,  0.000,  0.000,  5,  1.02999,  -64.9539,  'WACO 1 1',  161.00,  13
5140,  1,  0.000,  0.000,  0.000,  0.000,  5,  0.98406,  -70.6902,  'GATESVIL',  161.00,  13
5142,  1,  0.000,  0.000,  0.000,  0.000,  5,  1.00484,  -68.1270,  'MOODY 0 ',  161.00,  13
5144,  1,  0.000,  0.000,  0.000,  0.000,  5,  1.01294,  -66.3244,  'WACO 6 0',  161.00,  13
5151,  1,  0.000,  0.000,  0.000,  0.000,  5,  1.01570,  -68.1871,  'MORGAN 0',  161.00,  18
5154,  1,  0.000,  0.000,  0.000,  0.000,  5,  1.00987,  -67.7881,  'RIO VIST',  161.00,  18
5159,  1,  0.000,  0.000,  0.000,  0.000,  5,  0.97742,  -70.1332,  'ROSEBUD ',  161.00,  13
5162,  1,  150.934,  34.052,  0.000,  0.000,  5,  0.95635,  -72.1877,  'AXTELL 0',  161.00,  14
5163,  1,  0.000,  0.000,  0.000,  0.000,  5,  1.02496,  -65.5586,  'NOLANVIL',  161.00,  13
5166,  2,  96.855,  -19.345,  0.000,  0.000,  5,  1.04000,  -63.1898,  'DENTON 1',  13.800,  17
5179,  1,  416.342,  -152.664,  0.000,  0.000,  5,  1.03291,  -62.0053,  'CORSICAN',  500.00,  14
5182,  1,  0.000,  0.000,  0.000,  0.000,  5,  0.98490,  -70.5236,  'GATESVIL',  161.00,  13
5191,  1,  0.000,  -62.446,  0.000,  0.000,  5,  1.02014,  -68.3667,  'MERIDIAN',  161.00,  18
5192,  1,  0.000,  0.000,  0.000,  0.000,  5,  1.03459,  -63.5933,  'KILLEEN ',  500.00,  13
5193,  1,  0.000,  0.000,  0.000,  0.000,  5,  1.03479,  -63.9888,  'KILLEEN ',  161.00,  13
5206,  2,  52.522,  -12.035,  0.000,  0.000,  5,  1.03190,  -60.5654,  'POOLVILL',  13.800,  12
5207,  2,  89.725,  -22.765,  0.000,  0.000,  5,  1.03439,  -61.2787,  'POOLVILL',  13.800,  12
5208,  2,  72.214,  -17.673,  0.000,  0.000,  5,  1.03363,  -61.0655,  'POOLVILL',  13.800,  12
...
 0 /End of Bus data, Begin Generator data
1033,  '1',  31.950,  -40.030,  59.210,  -40.030,  1.00000,  0,  333.600,  0.00000,  1.00000,  0.00000,  0.00000,  1.00000,  1,  100.0,  278.000,  83.400
1048,  '1',  97.560,  -18.657,  165.530,  -36.100,  1.00000,  0,  390.240,  0.00000,  0.10170,  0.00000,  0.00000,  1.00000,  1,  100.0,  325.200,  97.560
1049,  '1',  97.560,  -6.106,  165.530,  -36.100,  1.00000,  0,  390.240,  0.00000,  0.13490,  0.00000,  0.00000,  1.00000,  1,  100.0,  325.200,  97.560
1053,  '1',  53.640,  -19.850,  91.010,  -19.850,  1.00000,  0,  214.560,  0.00000,  0.16870,  0.00000,  0.00000,  1.00000,  1,  100.0,  178.800,  53.640
1072,  '1',  70.322,  -14.153,  97.800,  -21.330,  1.01000,  0,  230.560,  0.00000,  0.30820,  0.00000,  0.00000,  1.00000,  1,  100.0,  192.130,  57.640
1073,  '1',  57.640,  -11.412,  97.800,  -21.330,  1.01000,  0,  230.560,  0.00000,  0.19480,  0.00000,  0.00000,  1.00000,  1,  100.0,  192.130,  57.640
1074,  '1',  57.640,  -8.797,  97.800,  -21.330,  1.01000,  0,  230.560,  0.00000,  0.20960,  0.00000,  0.00000,  1.00000,  1,  100.0,  192.130,  57.640
1075,  '1',  57.640,  -10.740,  97.800,  -21.330,  1.01000,  0,  230.560,  0.00000,  0.12370,  0.00000,  0.00000,  1.00000,  1,  100.0,  192.130,  57.640
1076,  '1',  57.640,  -21.330,  97.800,  -21.330,  1.01000,  0,  230.560,  0.00000,  0.10660,  0.00000,  0.00000,  1.00000,  1,  100.0,  192.130,  57.640
1077,  '1',  57.640,  -9.539,  97.800,  -21.330,  1.01000,  0,  230.560,  0.00000,  0.15380,  0.00000,  0.00000,  1.00000,  1,  100.0,  192.130,  57.640
1081,  '1',  85.950,  -31.800,  145.830,  -31.800,  1.01000,  0,  343.800,  0.00000,  0.14960,  0.00000,  0.00000,  1.00000,  1,  100.0,  286.500,  85.950
2004,  '1',  117.540,  -43.490,  199.430,  -43.490,  1.02000,  0,  470.160,  0.00000,  0.10640,  0.00000,  0.00000,  1.00000,  1,  100.0,  391.800,  117.540
2005,  '1',  117.540,  -43.490,  199.430,  -43.490,  1.02000,  0,  470.160,  0.00000,  0.22750,  0.00000,  0.00000,  1.00000,  1,  100.0,  391.800,  117.540
2006,  '1',  117.540,  -41.532,  199.430,  -43.490,  1.02000,  0,  470.160,  0.00000,  0.20040,  0.00000,  0.00000,  1.00000,  1,  100.0,  391.800,  117.540
2024,  '1',  50.000,  -18.500,  84.830,  -18.500,  1.02000,  0,  200.000,  0.00000,  0.15080,  0.00000,  0.00000,  1.00000,  1,  100.0,  166.670,  50.000
2057,  '1',  184.761,  -297.048,  335.520,  -87.840,  0.99000,  0,  864.000,  0.00000,  0.17700,  0.00000,  0.00000,  1.00000,  1,  100.0,  720.000,  216.000
2115,  '1',  55.410,  -20.500,  94.020,  -20.500,  1.00000,  0,  221.660,  0.00000,  0.14250,  0.00000,  0.00000,  1.00000,  1,  100.0,  184.720,  55.410
2116,  '1',  55.410,  -20.500,  94.020,  -20.500,  1.00000,  0,  221.660,  0.00000,  0.18690,  0.00000,  0.00000,  1.00000,  1,  100.0,  184.720,  55.410
2117,  '1',  55.410,  -20.500,  94.020,  -20.500,  1.00000,  0,  221.660,  0.00000,  0.32540,  0.00000,  0.00000,  1.00000,  1,  100.0,  184.720,  55.410
2118,  '1',  55.410,  -20.500,  94.020,  -20.500,  1.00000,  0,  221.660,  0.00000,  0.10610,  0.00000,  0.00000,  1.00000,  1,  100.0,  184.720,  55.410
2119,  '1',  55.410,  -20.500,  94.020,  -20.500,  1.00000,  0,  221.660,  0.00000,  0.13600,  0.00000,  0.00000,  1.00000,  1,  100.0,  184.720,  55.410
2120,  '1',  55.410,  -20.500,  94.020,  -20.500,  1.01000,  0,  221.660,  0.00000,  0.20680,  0.00000,  0.00000,  1.00000,  1,  100.0,  184.720,  55.410
3045,  '1',  134.100,  -4.493,  227.520,  -49.620,  1.04000,  0,  536.400,  0.00000,  0.14470,  0.00000,  0.00000,  1.00000,  1,  100.0,  447.000,  134.100
3106,  '1',  23.215,  -17.934,  62.477,  -2.690,  1.00000,  0,  65.880,  0.00000,  0.29220,  0.00000,  0.00000,  1.00000,  1,  100.0,  162.800,  0.000
3120,  '1',  0.000,  0.000,  0.000,  0.000,  1.00000,  0,  47.520,  0.00000,  1.00000,  0.00000,  0.00000,  1.00000,  0,  100.0,  39.600,  11.880
4026,  '1',  123.000,  8.681,  191.060,  -50.020,  1.03000,  0,  492.000,  0.00000,  0.32770,  0.00000,  0.00000,  1.00000,  1,  100.0,  410.000,  123.000
4030,  '1',  192.721,  6.663,  290.040,  -75.930,  1.01000,  0,  746.880,  0.00000,  0.27970,  0.00000,  0.00000,  1.00000,  1,  100.0,  622.400,  186.720
4058,  '1',  43.200,  14.652,  73.300,  -15.980,  1.03000,  0,  172.800,  0.00000,  0.13700,  0.00000,  0.00000,  1.00000,  1,  100.0,  144.000,  43.200
4059,  '1',  43.200,  16.607,  73.300,  -15.980,  1.03000,  0,  172.800,  0.00000,  0.15140,  0.00000,  0.00000,  1.00000,  1,  100.0,  144.000,  43.200
4060,  '1',  43.200,  10.144,  73.300,  -15.980,  1.03000,  0,  172.800,  0.00000,  0.13940,  0.00000,  0.00000,  1.00000,  1,  100.0,  144.000,  43.200
4061,  '1',  51.700,  14.773,  87.720,  -19.130,  1.03000,  0,  206.800,  0.00000,  0.21560,  0.00000,  0.00000,  1.00000,  1,  100.0,  172.330,  51.700
4062,  '1',  51.700,  11.139,  87.720,  -19.130,  1.03000,  0,  206.800,  0.00000,  0.25930,  0.00000,  0.00000,  1.00000,  1,  100.0,  172.330,  51.700
4063,  '1',  51.700,  15.185,  87.720,  -19.130,  1.03000,  0,  206.800,  0.00000,  0.14410,  0.00000,  0.00000,  1.00000,  1,  100.0,  172.330,  51.700
4082,  '1',  141.170,  18.241,  123.890,  -27.020,  1.04000,  0,  292.080,  0.00000,  0.13810,  0.00000,  0.00000,  1.00000,  1,  100.0,  243.400,  73.020
4083,  '1',  141.170,  19.336,  123.890,  -27.020,  1.04000,  0,  292.080,  0.00000,  0.15700,  0.00000,  0.00000,  1.00000,  1,  100.0,  243.400,  73.020
4084,  '1',  141.170,  33.924,  123.890,  -27.020,  1.04000,  0,  292.080,  0.00000,  0.19110,  0.00000,  0.00000,  1.00000,  1,  100.0,  243.400,  73.020
4085,  '1',  204.160,  38.494,  179.170,  -39.070,  1.04000,  0,  422.400,  0.00000,  0.31920,  0.00000,  0.00000,  1.00000,  1,  100.0,  352.000,  105.600
4115,  '1',  39.540,  22.158,  67.090,  -14.630,  1.04000,  0,  158.160,  0.00000,  0.11310,  0.00000,  0.00000,  1.00000,  1,  100.0,  131.800,  39.540
4116,  '1',  39.540,  20.675,  67.090,  -14.630,  1.04000,  0,  158.160,  0.00000,  0.15150,  0.00000,  0.00000,  1.00000,  1,  100.0,  131.800,  39.540
4133,  '1',  0.000,  0.000,  17.100,  -3.730,  1.00000,  0,  40.320,  0.00000,  0.22730,  0.00000,  0.00000,  1.00000,  0,  100.0,  33.600,  10.080
4134,  '1',  0.000,  -3.730,  17.100,  -3.730,  1.00000,  0,  40.320,  0.00000,  0.18000,  0.00000,  0.00000,  1.00000,  0,  100.0,  33.600,  10.080
4135,  '1',  0.000,  -3.730,  17.100,  -3.730,  1.00000,  0,  40.320,  0.00000,  0.10840,  0.00000,  0.00000,  1.00000,  0,  100.0,  33.600,  10.080
4136,  '1',  0.000,  -3.730,  17.100,  -3.730,  1.00000,  0,  40.320,  0.00000,  0.18960,  0.00000,  0.00000,  1.00000,  0,  100.0,  33.600,  10.080
4137,  '1',  0.000,  0.000,  34.200,  -7.460,  1.00000,  0,  80.640,  0.00000,  0.27350,  0.00000,  0.00000,  1.00000,  0,  100.0,  67.200,  20.160
4138,  '1',  0.000,  0.000,  33.590,  -7.330,  1.00000,  0,  79.200,  0.00000,  0.16760,  0.00000,  0.00000,  1.00000,  0,  100.0,  66.000,  19.800
4153,  '1',  32.548,  51.137,  60.320,  -40.780,  1.04000,  0,  339.840,  0.00000,  1.00000,  0.00000,  0.00000,  1.00000,  1,  100.0,  283.200,  84.960
4160,  '1',  59.330,  31.362,  100.660,  -21.950,  1.03000,  0,  237.320,  0.00000,  0.18820,  0.00000,  0.00000,  1.00000,  1,  100.0,  197.770,  59.330
4161,  '1',  59.330,  13.280,  100.660,  -21.950,  1.03000,  0,  237.320,  0.00000,  0.12390,  0.00000,  0.00000,  1.00000,  1,  100.0,  197.770,  59.330
4162,  '1',  59.330,  12.177,  100.660,  -21.950,  1.03000,  0,  237.320,  0.00000,  0.17220,  0.00000,  0.00000,  1.00000,  1,  100.0,  197.770,  59.330
4192,  '1',  629.970,  20.093,  688.320,  -150.120,  1.02000,  0,  1622.76,  0.00000,  0.14340,  0.00000,  0.00000,  1.00000,  1,  100.0,  1352.31,  405.690
5037,  '1',  222.100,  -34.240,  157.010,  -34.240,  1.02000,  0,  370.160,  0.00000,  0.29910,  0.00000,  0.00000,  1.00000,  1,  100.0,  308.470,  92.540
5038,  '1',  222.100,  -34.240,  157.010,  -34.240,  1.02000,  0,  370.160,  0.00000,  0.12330,  0.00000,  0.00000,  1.00000,  1,  100.0,  308.470,  92.540
5039,  '1',  222.100,  -34.240,  157.010,  -34.240,  1.02000,  0,  370.160,  0.00000,  0.21470,  0.00000,  0.00000,  1.00000,  1,  100.0,  308.470,  92.540
5040,  '1',  222.100,  -34.240,  157.010,  -34.240,  1.02000,  0,  370.160,  0.00000,  0.19240,  0.00000,  0.00000,  1.00000,  1,  100.0,  308.470,  92.540
5041,  '1',  222.100,  -34.240,  157.010,  -34.240,  1.02000,  0,  370.160,  0.00000,  0.11590,  0.00000,  0.00000,  1.00000,  1,  100.0,  308.470,  92.540
5042,  '1',  222.100,  -34.240,  157.010,  -34.240,  1.02000,  0,  370.160,  0.00000,  0.19130,  0.00000,  0.00000,  1.00000,  1,  100.0,  308.470,  92.540
5057,  '1',  184.050,  -35.230,  161.530,  -35.230,  1.00000,  0,  380.820,  0.00000,  0.19130,  0.00000,  0.00000,  1.00000,  1,  100.0,  317.350,  95.200
5058,  '1',  184.060,  -35.230,  161.530,  -35.230,  1.00000,  0,  380.820,  0.00000,  0.29820,  0.00000,  0.00000,  1.00000,  1,  100.0,  317.350,  95.200
5067,  '1',  254.200,  -34.696,  223.080,  -48.650,  1.03000,  0,  525.920,  0.00000,  0.32610,  0.00000,  0.00000,  1.00000,  1,  100.0,  438.270,  131.480
5068,  '1',  254.200,  -34.062,  223.080,  -48.650,  1.03000,  0,  525.920,  0.00000,  0.11690,  0.00000,  0.00000,  1.00000,  1,  100.0,  438.270,  131.480
5069,  '1',  254.200,  -32.441,  223.080,  -48.650,  1.03000,  0,  525.920,  0.00000,  0.10560,  0.00000,  0.00000,  1.00000,  1,  100.0,  438.270,  131.480
5166,  '1',  37.950,  6.451,  64.390,  -14.040,  1.04000,  0,  151.800,  0.00000,  0.13910,  0.00000,  0.00000,  1.00000,  1,  100.0,  126.500,  37.950
5206,  '1',  144.230,  -27.600,  126.570,  -27.600,  1.01000,  0,  298.400,  0.00000,  0.11980,  0.00000,  0.00000,  1.00000,  1,  100.0,  248.670,  74.600
5207,  '1',  144.230,  -27.600,  126.570,  -27.600,  1.01000,  0,  298.400,  0.00000,  0.18090,  0.00000,  0.00000,  1.00000,  1,  100.0,  248.670,  74.600
5208,  '1',  144.230,  -27.600,  126.570,  -27.600,  1.01000,  0,  298.400,  0.00000,  0.10560,  0.00000,  0.00000,  1.00000,  1,  100.0,  248.670,  74.600
5262,  '1',  1215.000,  -99.630,  447.120,  -99.630,  1.01000,  0,  1458.00,  0.00000,  0.26310,  0.00000,  0.00000,  1.00000,  1,  100.0,  1215.00,  364.500
5263,  '1',  1215.000,  -99.630,  447.120,  -99.630,  1.01000,  0,  1458.00,  0.00000,  0.16260,  0.00000,  0.00000,  1.00000,  1,  100.0,  1215.00,  364.500
5281,  '1',  80.320,  -29.720,  136.280,  -29.720,  1.00000,  0,  321.280,  0.00000,  0.10660,  0.00000,  0.00000,  1.00000,  1,  100.0,  267.730,  80.320
5282,  '1',  80.320,  -29.720,  136.280,  -29.720,  1.00000,  0,  321.280,  0.00000,  0.23940,  0.00000,  0.00000,  1.00000,  1,  100.0,  267.730,  80.320
5283,  '1',  80.320,  -29.720,  136.280,  -29.720,  1.00000,  0,  321.280,  0.00000,  0.10650,  0.00000,  0.00000,  1.00000,  1,  100.0,  267.730,  80.320
5302,  '1',  139.130,  29.469,  236.050,  -51.480,  1.04000,  0,  556.500,  0.00000,  0.13300,  0.00000,  0.00000,  1.00000,  1,  100.0,  463.750,  139.130
5303,  '1',  139.130,  39.945,  236.050,  -51.480,  1.04000,  0,  556.500,  0.00000,  0.17920,  0.00000,  0.00000,  1.00000,  1,  100.0,  463.750,  139.130
5319,  '1',  78.840,  -29.170,  133.770,  -29.170,  1.01000,  0,  315.360,  0.00000,  0.25070,  0.00000,  0.00000,  1.00000,  1,  100.0,  262.800,  78.840
5320,  '1',  78.840,  -29.170,  133.770,  -29.170,  1.01000,  0,  315.360,  0.00000,  0.28140,  0.00000,  0.00000,  1.00000,  1,  100.0,  262.800,  78.840
5321,  '1',  78.840,  -29.170,  133.770,  -29.170,  1.01000,  0,  315.360,  0.00000,  0.12810,  0.00000,  0.00000,  1.00000,  1,  100.0,  262.800,  78.840
5324,  '1',  204.530,  28.686,  144.590,  -31.530,  1.04000,  0,  340.880,  0.00000,  0.21670,  0.00000,  0.00000,  1.00000,  1,  100.0,  284.070,  85.220
5325,  '1',  204.530,  30.174,  144.590,  -31.530,  1.04000,  0,  340.880,  0.00000,  0.15030,  0.00000,  0.00000,  1.00000,  1,  100.0,  284.070,  85.220
5326,  '1',  204.530,  79.820,  144.590,  -31.530,  1.04000,  0,  340.880,  0.00000,  0.18810,  0.00000,  0.00000,  1.00000,  1,  100.0,  284.070,  85.220
5360,  '1',  275.831,  -173.846,  469.730,  -122.980,  1.01000,  0,  1209.60,  0.00000,  0.25510,  0.00000,  0.00000,  1.00000,  1,  100.0,  1008.00,  302.400
5364,  '1',  123.730,  -23.680,  108.590,  -23.680,  1.00000,  0,  256.000,  0.00000,  0.13030,  0.00000,  0.00000,  1.00000,  1,  100.0,  213.330,  64.000
5365,  '1',  123.730,  -23.680,  108.590,  -23.680,  1.00000,  0,  256.000,  0.00000,  0.11650,  0.00000,  0.00000,  1.00000,  1,  100.0,  213.330,  64.000
5366,  '1',  123.730,  -23.680,  108.590,  -23.680,  1.00000,  0,  256.000,  0.00000,  0.15490,  0.00000,  0.00000,  1.00000,  1,  100.0,  213.330,  64.000
5367,  '1',  123.730,  -23.680,  108.590,  -23.680,  1.00000,  0,  256.000,  0.00000,  0.10020,  0.00000,  0.00000,  1.00000,  1,  100.0,  213.330,  64.000
5368,  '1',  123.730,  -23.680,  108.590,  -23.680,  1.00000,  0,  256.000,  0.00000,  0.36180,  0.00000,  0.00000,  1.00000,  1,  100.0,  213.330,  64.000
5369,  '1',  123.730,  -23.680,  108.590,  -23.680,  1.00000,  0,  256.000,  0.00000,  0.24440,  0.00000,  0.00000,  1.00000,  1,  100.0,  213.330,  64.000
5382,  '1',  121.220,  46.994,  106.380,  -23.200,  1.04000,  0,  250.800,  0.00000,  0.24770,  0.00000,  0.00000,  1.00000,  1,  100.0,  209.000,  62.700
5383,  '1',  121.220,  41.362,  106.380,  -23.200,  1.04000,  0,  250.800,  0.00000,  0.39820,  0.00000,  0.00000,  1.00000,  1,  100.0,  209.000,  62.700
5403,  '1',  0.000,  45.500,  45.500,  -9.920,  1.03000,  0,  107.280,  0.00000,  0.19850,  0.00000,  0.00000,  1.00000,  0,  100.0,  89.400,  26.820
5404,  '1',  0.000,  45.500,  45.500,  -9.920,  1.03000,  0,  107.280,  0.00000,  0.13470,  0.00000,  0.00000,  1.00000,  0,  100.0,  89.400,  26.820
5405,  '1',  0.000,  45.500,  45.500,  -9.920,  1.03000,  0,  107.280,  0.00000,  0.14170,  0.00000,  0.00000,  1.00000,  0,  100.0,  89.400,  26.820
5406,  '1',  0.000,  45.500,  45.500,  -9.920,  1.03000,  0,  107.280,  0.00000,  0.12270,  0.00000,  0.00000,  1.00000,  0,  100.0,  89.400,  26.820
5415,  '1',  36.600,  -13.540,  62.100,  -13.540,  1.00000,  0,  146.400,  0.00000,  0.14030,  0.00000,  0.00000,  1.00000,  1,  100.0,  122.000,  36.600
5416,  '1',  36.600,  -13.540,  62.100,  -13.540,  1.00000,  0,  146.400,  0.00000,  0.26480,  0.00000,  0.00000,  1.00000,  1,  100.0,  122.000,  36.600
5417,  '1',  36.600,  -13.540,  62.100,  -13.540,  1.00000,  0,  146.400,  0.00000,  0.16960,  0.00000,  0.00000,  1.00000,  1,  100.0,  122.000,  36.600
5444,  '1',  604.980,  -223.840,  1026.440,  -223.840,  1.01000,  0,  2419.92,  0.00000,  0.34260,  0.00000,  0.00000,  1.00000,  1,  100.0,  2016.60,  604.980
6006,  '1',  63.900,  4.758,  108.420,  -23.640,  1.04000,  0,  255.600,  0.00000,  0.18770,  0.00000,  0.00000,  1.00000,  1,  100.0,  213.000,  63.900
6007,  '1',  247.080,  7.483,  216.830,  -47.290,  1.04000,  0,  511.200,  0.00000,  0.13420,  0.00000,  0.00000,  1.00000,  1,  100.0,  426.000,  127.800
6008,  '1',  59.500,  4.401,  100.950,  -22.010,  1.04000,  0,  238.000,  0.00000,  0.20160,  0.00000,  0.00000,  1.00000,  1,  100.0,  198.330,  59.500
6009,  '1',  59.500,  2.540,  100.950,  -22.010,  1.04000,  0,  238.000,  0.00000,  0.18430,  0.00000,  0.00000,  1.00000,  1,  100.0,  198.330,  59.500
6010,  '1',  59.500,  3.320,  100.950,  -22.010,  1.04000,  0,  238.000,  0.00000,  0.15620,  0.00000,  0.00000,  1.00000,  1,  100.0,  198.330,  59.500
6042,  '1',  38.159,  5.609,  122.908,  -5.290,  1.04000,  0,  129.600,  0.00000,  0.18770,  0.00000,  0.00000,  1.00000,  1,  100.0,  320.200,  0.000
6048,  '1',  0.000,  0.000,  1.730,  -0.380,  1.04000,  0,  4.080,  0.00000,  0.11720,  0.00000,  0.00000,  1.00000,  0,  100.0,  3.400,  1.020
6049,  '1',  0.000,  4.890,  4.890,  -1.070,  1.04000,  0,  11.520,  0.00000,  0.18260,  0.00000,  0.00000,  1.00000,  0,  100.0,  9.600,  2.880
6050,  '1',  0.000,  0.000,  2.240,  -0.490,  1.04000,  0,  5.280,  0.00000,  0.36280,  0.00000,  0.00000,  1.00000,  0,  100.0,  4.400,  1.320
6052,  '1',  0.000,  29.220,  29.220,  -6.370,  1.04000,  0,  68.880,  0.00000,  0.12090,  0.00000,  0.00000,  1.00000,  0,  100.0,  57.400,  17.220
6069,  '1',  54.410,  -16.642,  92.320,  -20.130,  1.03000,  0,  217.640,  0.00000,  0.22480,  0.00000,  0.00000,  1.00000,  1,  100.0,  181.370,  54.410
6070,  '1',  54.410,  -6.916,  92.320,  -20.130,  1.03000,  0,  217.640,  0.00000,  0.24660,  0.00000,  0.00000,  1.00000,  1,  100.0,  181.370,  54.410
6071,  '1',  54.410,  -20.130,  92.320,  -20.130,  1.03000,  0,  217.640,  0.00000,  0.15280,  0.00000,  0.00000,  1.00000,  1,  100.0,  181.370,  54.410
6072,  '1',  54.410,  -8.174,  92.320,  -20.130,  1.03000,  0,  217.640,  0.00000,  0.19250,  0.00000,  0.00000,  1.00000,  1,  100.0,  181.370,  54.410
6073,  '1',  54.410,  -12.516,  92.320,  -20.130,  1.03000,  0,  217.640,  0.00000,  0.14260,  0.00000,  0.00000,  1.00000,  1,  100.0,  181.370,  54.410
6074,  '1',  54.410,  -12.968,  92.320,  -20.130,  1.03000,  0,  217.640,  0.00000,  0.11150,  0.00000,  0.00000,  1.00000,  1,  100.0,  181.370,  54.410
6078,  '1',  169.000,  -68.730,  262.510,  -68.730,  1.00000,  0,  676.000,  0.00000,  0.28900,  0.00000,  0.00000,  1.00000,  1,  100.0,  563.330,  169.000
6079,  '1',  169.000,  -68.730,  262.510,  -68.730,  1.00000,  0,  676.000,  0.00000,  0.25330,  0.00000,  0.00000,  1.00000,  1,  100.0,  563.330,  169.000
6080,  '1',  169.000,  -68.730,  262.510,  -68.730,  1.00000,  0,  676.000,  0.00000,  0.32510,  0.00000,  0.00000,  1.00000,  1,  100.0,  563.330,  169.000
6085,  '1',  0.000,  0.000,  0.000,  0.000,  1.04000,  0,  1.680,  0.00000,  1.00000,  0.00000,  0.00000,  1.00000,  0,  100.0,  1.400,  0.420
6086,  '1',  0.000,  0.000,  0.000,  0.000,  1.04000,  0,  36.000,  0.00000,  1.00000,  0.00000,  0.00000,  1.00000,  0,  100.0,  30.000,  9.000
6087,  '1',  0.000,  0.000,  0.000,  0.000,  1.04000,  0,  6.600,  0.00000,  1.00000,  0.00000,  0.00000,  1.00000,  0,  100.0,  5.500,  1.650
6088,  '1',  0.000,  0.000,  0.000,  0.000,  1.04000,  0,  12.720,  0.00000,  1.00000,  0.00000,  0.00000,  1.00000,  0,  100.0,  10.600,  3.180
6089,  '1',  0.000,  0.000,  0.000,  0.000,  1.04000,  0,  16.680,  0.00000,  1.00000,  0.00000,  0.00000,  1.00000,  0,  100.0,  13.900,  4.170
6090,  '1',  0.000,  0.000,  0.000,  0.000,  1.04000,  0,  48.840,  0.00000,  1.00000,  0.00000,  0.00000,  1.00000,  0,  100.0,  40.700,  12.210
6104,  '1',  0.000,  30.790,  30.790,  -6.720,  1.04000,  0,  72.600,  0.00000,  0.21100,  0.00000,  0.00000,  1.00000,  0,  100.0,  60.500,  18.150
6105,  '1',  0.000,  30.790,  30.790,  -6.720,  1.04000,  0,  72.600,  0.00000,  0.31280,  0.00000,  0.00000,  1.00000,  0,  100.0,  60.500,  18.150
6106,  '1',  0.000,  61.590,  61.590,  -13.430,  1.04000,  0,  145.200,  0.00000,  0.12010,  0.00000,  0.00000,  1.00000,  0,  100.0,  121.000,  36.300
6110,  '1',  177.180,  2.794,  275.220,  -72.050,  1.04000,  0,  708.720,  0.00000,  0.16800,  0.00000,  0.00000,  1.00000,  1,  100.0,  590.600,  177.180
6111,  '1',  198.450,  3.073,  308.260,  -80.700,  1.04000,  0,  793.800,  0.00000,  0.21900,  0.00000,  0.00000,  1.00000,  1,  100.0,  661.500,  198.450
6144,  '1',  0.000,  -0.930,  4.280,  -0.930,  1.03000,  0,  10.080,  0.00000,  0.21910,  0.00000,  0.00000,  1.00000,  0,  100.0,  8.400,  2.520
6145,  '1',  321.120,  -6.325,  227.010,  -49.510,  1.03000,  0,  535.200,  0.00000,  0.14770,  0.00000,  0.00000,  1.00000,  1,  100.0,  446.000,  133.800
6146,  '1',  321.120,  -6.663,  227.010,  -49.510,  1.03000,  0,  535.200,  0.00000,  0.11950,  0.00000,  0.00000,  1.00000,  1,  100.0,  446.000,  133.800
6147,  '1',  290.386,  -10.129,  474.390,  -103.450,  1.03000,  0,  1118.40,  0.00000,  0.10440,  0.00000,  0.00000,  1.00000,  1,  100.0,  932.000,  279.600
6148,  '1',  216.600,  -20.938,  367.500,  -80.140,  1.03000,  0,  866.400,  0.00000,  0.23830,  0.00000,  0.00000,  1.00000,  1,  100.0,  722.000,  216.600
6149,  '1',  216.600,  -39.113,  367.500,  -80.140,  1.03000,  0,  866.400,  0.00000,  0.12770,  0.00000,  0.00000,  1.00000,  1,  100.0,  722.000,  216.600
6164,  '1',  70.520,  -5.034,  119.640,  -26.090,  1.03000,  0,  282.060,  0.00000,  0.30070,  0.00000,  0.00000,  1.00000,  1,  100.0,  235.050,  70.520
6165,  '1',  70.520,  -4.892,  119.640,  -26.090,  1.03000,  0,  282.060,  0.00000,  0.18390,  0.00000,  0.00000,  1.00000,  1,  100.0,  235.050,  70.520
6166,  '1',  70.520,  -10.373,  119.640,  -26.090,  1.03000,  0,  282.060,  0.00000,  0.25100,  0.00000,  0.00000,  1.00000,  1,  100.0,  235.050,  70.520
6167,  '1',  70.520,  -5.752,  119.640,  -26.090,  1.03000,  0,  282.060,  0.00000,  0.13970,  0.00000,  0.00000,  1.00000,  1,  100.0,  235.050,  70.520
6214,  '1',  65.818,  -9.130,  212.059,  -9.130,  1.04000,  0,  223.600,  0.00000,  0.21900,  0.00000,  0.00000,  1.00000,  1,  100.0,  552.300,  0.000
6215,  '1',  65.818,  -9.130,  212.059,  -9.130,  1.04000,  0,  223.600,  0.00000,  0.20110,  0.00000,  0.00000,  1.00000,  1,  100.0,  552.300,  0.000
6216,  '1',  65.818,  -9.130,  212.059,  -9.130,  1.04000,  0,  223.600,  0.00000,  0.37760,  0.00000,  0.00000,  1.00000,  1,  100.0,  552.300,  0.000
6242,  '1',  0.000,  15.725,  31.050,  -6.770,  1.04000,  0,  73.200,  0.00000,  0.14010,  0.00000,  0.00000,  1.00000,  0,  100.0,  61.000,  18.300
6243,  '1',  106.140,  24.367,  93.150,  -20.310,  1.04000,  0,  219.600,  0.00000,  0.28800,  0.00000,  0.00000,  1.00000,  1,  100.0,  183.000,  54.900
6244,  '1',  214.560,  29.496,  151.680,  -33.080,  1.04000,  0,  357.600,  0.00000,  0.12500,  0.00000,  0.00000,  1.00000,  1,  100.0,  298.000,  89.400
6245,  '1',  214.560,  34.195,  151.680,  -33.080,  1.04000,  0,  357.600,  0.00000,  0.24960,  0.00000,  0.00000,  1.00000,  1,  100.0,  298.000,  89.400
6246,  '1',  214.560,  65.313,  151.680,  -33.080,  1.04000,  0,  357.600,  0.00000,  0.16990,  0.00000,  0.00000,  1.00000,  1,  100.0,  298.000,  89.400
6247,  '1',  106.330,  53.780,  93.320,  -20.350,  1.04000,  0,  220.000,  0.00000,  0.11730,  0.00000,  0.00000,  1.00000,  1,  100.0,  183.330,  55.000
6248,  '1',  106.330,  27.108,  93.320,  -20.350,  1.04000,  0,  220.000,  0.00000,  0.27550,  0.00000,  0.00000,  1.00000,  1,  100.0,  183.330,  55.000
6249,  '1',  106.330,  18.245,  93.320,  -20.350,  1.04000,  0,  220.000,  0.00000,  0.17480,  0.00000,  0.00000,  1.00000,  1,  100.0,  183.330,  55.000
6257,  '1',  58.200,  -21.530,  98.750,  -21.530,  1.02000,  0,  232.800,  0.00000,  0.15520,  0.00000,  0.00000,  1.00000,  1,  100.0,  194.000,  58.200
6258,  '1',  58.200,  -21.530,  98.750,  -21.530,  1.02000,  0,  232.800,  0.00000,  0.26310,  0.00000,  0.00000,  1.00000,  1,  100.0,  194.000,  58.200
6259,  '1',  0.000,  0.000,  26.160,  -5.710,  1.02000,  0,  61.680,  0.00000,  0.14750,  0.00000,  0.00000,  1.00000,  0,  100.0,  51.400,  15.420
6260,  '1',  149.060,  -28.530,  130.810,  -28.530,  1.02000,  0,  308.400,  0.00000,  0.11970,  0.00000,  0.00000,  1.00000,  1,  100.0,  257.000,  77.100
6295,  '1',  61.870,  -22.890,  104.970,  -22.890,  1.02000,  0,  247.480,  0.00000,  0.21970,  0.00000,  0.00000,  1.00000,  1,  100.0,  206.230,  61.870
6296,  '1',  61.870,  -22.890,  104.970,  -22.890,  1.02000,  0,  247.480,  0.00000,  0.25670,  0.00000,  0.00000,  1.00000,  1,  100.0,  206.230,  61.870
6297,  '1',  61.900,  -22.890,  104.970,  -22.890,  1.02000,  0,  247.480,  0.00000,  0.14170,  0.00000,  0.00000,  1.00000,  1,  100.0,  206.230,  61.900
6301,  '1',  0.000,  0.000,  1.630,  -0.360,  1.00000,  0,  3.840,  0.00000,  0.26290,  0.00000,  0.00000,  1.00000,  0,  100.0,  3.200,  0.960
6302,  '1',  143.410,  -27.440,  125.850,  -27.440,  1.00000,  0,  296.700,  0.00000,  0.25960,  0.00000,  0.00000,  1.00000,  1,  100.0,  247.250,  74.180
6303,  '1',  143.410,  -27.440,  125.850,  -27.440,  1.00000,  0,  296.700,  0.00000,  0.27270,  0.00000,  0.00000,  1.00000,  1,  100.0,  247.250,  74.180
6304,  '1',  143.410,  -27.440,  125.850,  -27.440,  1.00000,  0,  296.700,  0.00000,  0.11710,  0.00000,  0.00000,  1.00000,  1,  100.0,  247.250,  74.180
6305,  '1',  125.640,  -27.440,  125.850,  -27.440,  1.00000,  0,  296.700,  0.00000,  0.12770,  0.00000,  0.00000,  1.00000,  1,  100.0,  247.250,  74.180
6349,  '1',  421.080,  85.194,  369.540,  -80.580,  1.04000,  0,  871.200,  0.00000,  0.16290,  0.00000,  0.00000,  1.00000,  1,  100.0,  726.000,  217.800
7005,  '1',  94.540,  15.319,  82.970,  -18.090,  1.04000,  0,  195.600,  0.00000,  0.13000,  0.00000,  0.00000,  1.00000,  1,  100.0,  163.000,  48.900
7006,  '1',  94.540,  27.649,  82.970,  -18.090,  1.04000,  0,  195.600,  0.00000,  0.19150,  0.00000,  0.00000,  1.00000,  1,  100.0,  163.000,  48.900
7007,  '1',  94.540,  17.877,  82.970,  -18.090,  1.04000,  0,  195.600,  0.00000,  0.34300,  0.00000,  0.00000,  1.00000,  1,  100.0,  163.000,  48.900
7008,  '1',  94.540,  16.625,  82.970,  -18.090,  1.04000,  0,  195.600,  0.00000,  0.21570,  0.00000,  0.00000,  1.00000,  1,  100.0,  163.000,  48.900
7009,  '1',  94.540,  14.983,  82.970,  -18.090,  1.04000,  0,  195.600,  0.00000,  0.13060,  0.00000,  0.00000,  1.00000,  1,  100.0,  163.000,  48.900
7045,  '1',  56.530,  60.621,  95.920,  -20.920,  1.03000,  0,  226.140,  0.00000,  0.12400,  0.00000,  0.00000,  1.00000,  1,  100.0,  188.450,  56.530
7046,  '1',  56.530,  95.920,  95.920,  -20.920,  1.03000,  0,  226.140,  0.00000,  0.10650,  0.00000,  0.00000,  1.00000,  1,  100.0,  188.450,  56.530
7079,  '1',  164.630,  9.782,  116.380,  -25.380,  1.04000,  0,  274.380,  0.00000,  0.13630,  0.00000,  0.00000,  1.00000,  1,  100.0,  228.650,  68.590
7080,  '1',  164.630,  7.688,  116.380,  -25.380,  1.04000,  0,  274.380,  0.00000,  0.17160,  0.00000,  0.00000,  1.00000,  1,  100.0,  228.650,  68.590
7081,  '1',  164.630,  8.202,  116.380,  -25.380,  1.04000,  0,  274.380,  0.00000,  0.24350,  0.00000,  0.00000,  1.00000,  1,  100.0,  228.650,  68.590
7082,  '1',  164.630,  9.260,  116.380,  -25.380,  1.04000,  0,  274.380,  0.00000,  0.26430,  0.00000,  0.00000,  1.00000,  1,  100.0,  228.650,  68.590
7098,  '1',  2265.897,  954.018,  498.380,  -111.050,  1.00000,  0,  3600.00,  0.00000,  0.28190,  0.00000,  0.00000,  1.00000,  1,  100.0,  1354.30,  406.290
7099,  '1',  1354.300,  275.214,  498.380,  -111.050,  1.00000,  0,  1625.16,  0.00000,  0.27430,  0.00000,  0.00000,  1.00000,  1,  100.0,  1354.30,  406.290
7107,  '1',  87.000,  35.408,  76.350,  -16.650,  1.04000,  0,  180.000,  0.00000,  0.29250,  0.00000,  0.00000,  1.00000,  1,  100.0,  150.000,  45.000
7110,  '1',  113.680,  19.500,  99.760,  -21.760,  1.04000,  0,  235.200,  0.00000,  0.13730,  0.00000,  0.00000,  1.00000,  1,  100.0,  196.000,  58.800
7111,  '1',  113.680,  18.967,  99.760,  -21.760,  1.04000,  0,  235.200,  0.00000,  0.19180,  0.00000,  0.00000,  1.00000,  1,  100.0,  196.000,  58.800
7112,  '1',  113.680,  30.518,  99.760,  -21.760,  1.04000,  0,  235.200,  0.00000,  0.17280,  0.00000,  0.00000,  1.00000,  1,  100.0,  196.000,  58.800
7113,  '1',  113.680,  16.038,  99.760,  -21.760,  1.04000,  0,  235.200,  0.00000,  0.16060,  0.00000,  0.00000,  1.00000,  1,  100.0,  196.000,  58.800
7114,  '1',  113.680,  32.355,  99.760,  -21.760,  1.04000,  0,  235.200,  0.00000,  0.20370,  0.00000,  0.00000,  1.00000,  1,  100.0,  196.000,  58.800
7115,  '1',  113.680,  32.563,  99.760,  -21.760,  1.04000,  0,  235.200,  0.00000,  0.17540,  0.00000,  0.00000,  1.00000,  1,  100.0,  196.000,  58.800
7134,  '1',  119.800,  -22.930,  105.130,  -22.930,  1.00000,  0,  247.860,  0.00000,  0.12450,  0.00000,  0.00000,  1.00000,  1,  100.0,  206.550,  61.970
7135,  '1',  119.800,  -22.930,  105.130,  -22.930,  1.00000,  0,  247.860,  0.00000,  0.10080,  0.00000,  0.00000,  1.00000,  1,  100.0,  206.550,  61.970
7136,  '1',  119.800,  -22.930,  105.130,  -22.930,  1.00000,  0,  247.860,  0.00000,  0.12110,  0.00000,  0.00000,  1.00000,  1,  100.0,  206.550,  61.970
7137,  '1',  119.800,  -22.930,  105.130,  -22.930,  1.00000,  0,  247.860,  0.00000,  0.35250,  0.00000,  0.00000,  1.00000,  1,  100.0,  206.550,  61.970
7138,  '1',  274.100,  -42.260,  193.780,  -42.260,  1.00000,  0,  456.840,  0.00000,  0.12060,  0.00000,  0.00000,  1.00000,  1,  100.0,  380.700,  114.210
7162,  '1',  33.180,  32.777,  56.300,  -12.280,  1.04000,  0,  132.720,  0.00000,  0.21300,  0.00000,  0.00000,  1.00000,  1,  100.0,  110.600,  33.180
7163,  '1',  33.180,  21.023,  56.300,  -12.280,  1.04000,  0,  132.720,  0.00000,  0.10860,  0.00000,  0.00000,  1.00000,  1,  100.0,  110.600,  33.180
7164,  '1',  33.180,  29.237,  56.300,  -12.280,  1.04000,  0,  132.720,  0.00000,  0.20360,  0.00000,  0.00000,  1.00000,  1,  100.0,  110.600,  33.180
7165,  '1',  33.180,  32.457,  56.300,  -12.280,  1.04000,  0,  132.720,  0.00000,  0.39190,  0.00000,  0.00000,  1.00000,  1,  100.0,  110.600,  33.180
7166,  '1',  33.180,  17.918,  56.300,  -12.280,  1.04000,  0,  132.720,  0.00000,  0.12630,  0.00000,  0.00000,  1.00000,  1,  100.0,  110.600,  33.180
7167,  '1',  33.200,  14.743,  56.300,  -12.280,  1.04000,  0,  132.720,  0.00000,  0.10500,  0.00000,  0.00000,  1.00000,  1,  100.0,  110.600,  33.200
7170,  '1',  252.630,  43.193,  178.590,  -38.950,  1.04000,  0,  421.040,  0.00000,  0.12310,  0.00000,  0.00000,  1.00000,  1,  100.0,  350.870,  105.260
7194,  '1',  166.280,  15.824,  117.550,  -25.640,  1.03000,  0,  277.140,  0.00000,  0.16070,  0.00000,  0.00000,  1.00000,  1,  100.0,  230.950,  69.280
7195,  '1',  166.280,  13.374,  117.550,  -25.640,  1.03000,  0,  277.140,  0.00000,  0.11620,  0.00000,  0.00000,  1.00000,  1,  100.0,  230.950,  69.280
7196,  '1',  166.280,  24.697,  117.550,  -25.640,  1.03000,  0,  277.140,  0.00000,  0.13190,  0.00000,  0.00000,  1.00000,  1,  100.0,  230.950,  69.280
7197,  '1',  166.280,  38.699,  117.550,  -25.640,  1.03000,  0,  277.140,  0.00000,  0.20530,  0.00000,  0.00000,  1.00000,  1,  100.0,  230.950,  69.280
7208,  '1',  229.500,  20.513,  389.390,  -84.920,  1.04000,  0,  918.000,  0.00000,  0.32860,  0.00000,  0.00000,  1.00000,  1,  100.0,  765.000,  229.500
7209,  '1',  229.500,  30.096,  389.390,  -84.920,  1.04000,  0,  918.000,  0.00000,  0.31020,  0.00000,  0.00000,  1.00000,  1,  100.0,  765.000,  229.500
7210,  '1',  103.530,  7.927,  90.860,  -19.810,  1.04000,  0,  214.200,  0.00000,  0.12360,  0.00000,  0.00000,  1.00000,  1,  100.0,  178.500,  53.550
7211,  '1',  103.530,  11.747,  90.860,  -19.810,  1.04000,  0,  214.200,  0.00000,  0.25410,  0.00000,  0.00000,  1.00000,  1,  100.0,  178.500,  53.550
7212,  '1',  103.530,  7.447,  90.860,  -19.810,  1.04000,  0,  214.200,  0.00000,  0.14820,  0.00000,  0.00000,  1.00000,  1,  100.0,  178.500,  53.550
...
 0 /End of Generator data, Begin Branch data
1012,  1033,  '99',  0.19988,  0.97903,  0.00000,  0.00,  0.00,  0.00,  0.00000,  0.000,  0.00000,  0.00000,  0.00000,  0.00000,  1
1012,  1046,  '99',  0.11776,  0.48056,  0.00000,  0.00,  0.00,  0.00,  0.00000,  0.000,  0.00000,  0.00000,  0.00000,  0.00000,  1
1012,  -3051,  '1',  0.05710,  0.24977,  0.03804,  149.00,  0.00,  0.00,  0.00000,  0.000,  0.00000,  0.00000,  0.00000,  0.00000,  1
1033,  1046,  '99',  0.13092,  0.68219,  0.00000,  0.00,  0.00,  0.00,  0.00000,  0.000,  0.00000,  0.00000,  0.00000,  0.00000,  1
1033,  1048,  '99',  0.30499,  1.75719,  0.00000,  0.00,  0.00,  0.00,  0.00000,  0.000,  0.00000,  0.00000,  0.00000,  0.00000,  1
1033,  1049,  '99',  0.45931,  3.15916,  0.00000,  0.00,  0.00,  0.00,  0.00000,  0.000,  0.00000,  0.00000,  0.00000,  0.00000,  1
1033,  1053,  '99',  0.34971,  2.36076,  0.00000,  0.00,  0.00,  0.00,  0.00000,  0.000,  0.00000,  0.00000,  0.00000,  0.00000,  1
1033,  1081,  '99',  0.00299,  0.03089,  0.00000,  0.00,  0.00,  0.00,  0.00000,  0.000,  0.00000,  0.00000,  0.00000,  0.00000,  1
1033,  3048,  '99',  0.28463,  3.21196,  0.00000,  0.00,  0.00,  0.00,  0.00000,  0.000,  0.00000,  0.00000,  0.00000,  0.00000,  1
1033,  3050,  '1',  0.01390,  0.13600,  0.26200,  647.00,  0.00,  0.00,  0.00000,  0.000,  0.00000,  0.00000,  0.00000,  0.00000,  1
1046,  3009,  '1',  0.05654,  0.23454,  0.03980,  149.00,  0.00,  0.00,  0.00000,  0.000,  0.00000,  0.00000,  0.00000,  0.00000,  1
1048,  1049,  '99',  0.00211,  0.33498,  0.00000,  0.00,  0.00,  0.00,  0.00000,  0.000,  0.00000,  0.00000,  0.00000,  0.00000,  1
1048,  1053,  '99',  0.00225,  0.25042,  0.00000,  0.00,  0.00,  0.00,  0.00000,  0.000,  0.00000,  0.00000,  0.00000,  0.00000,  1
1048,  1072,  '99',  0.81910,  4.34504,  0.00000,  0.00,  0.00,  0.00,  0.00000,  0.000,  0.00000,  0.00000,  0.00000,  0.00000,  1
1048,  1076,  '99',  0.38871,  2.51919,  0.00000,  0.00,  0.00,  0.00,  0.00000,  0.000,  0.00000,  0.00000,  0.00000,  0.00000,  1
1048,  1081,  '99',  0.48750,  3.16251,  0.00000,  0.00,  0.00,  0.00,  0.00000,  0.000,  0.00000,  0.00000,  0.00000,  0.00000,  1
1048,  3048,  '99',  0.32466,  1.99830,  0.00000,  0.00,  0.00,  0.00,  0.00000,  0.000,  0.00000,  0.00000,  0.00000,  0.00000,  1
1049,  1053,  '99',  -0.00829,  0.44818,  0.00000,  0.00,  0.00,  0.00,  0.00000,  0.000,  0.00000,  0.00000,  0.00000,  0.00000,  1
1049,  1076,  '99',  0.57163,  4.52674,  0.00000,  0.00,  0.00,  0.00,  0.00000,  0.000,  0.00000,  0.00000,  0.00000,  0.00000,  1
1049,  3048,  '99',  0.48263,  3.59155,  0.00000,  0.00,  0.00,  0.00,  0.00000,  0.000,  0.00000,  0.00000,  0.00000,  0.00000,  1
1053,  1076,  '99',  0.43643,  3.38288,  0.00000,  0.00,  0.00,  0.00,  0.00000,  0.000,  0.00000,  0.00000,  0.00000,  0.00000,  1
1053,  1081,  '99',  0.00298,  0.02979,  0.00000,  0.00,  0.00,  0.00,  0.00000,  0.000,  0.00000,  0.00000,  0.00000,  0.00000,  1
1053,  3048,  '99',  0.36801,  2.68395,  0.00000,  0.00,  0.00,  0.00,  0.00000,  0.000,  0.00000,  0.00000,  0.00000,  0.00000,  1
1072,  1073,  '99',  0.13267,  1.22251,  0.00000,  0.00,  0.00,  0.00,  0.00000,  0.000,  0.00000,  0.00000,  0.00000,  0.00000,  1
1072,  1074,  '99',  0.06400,  1.17160,  0.00000,  0.00,  0.00,  0.00,  0.00000,  0.000,  0.00000,  0.00000,  0.00000,  0.00000,  1
1072,  1075,  '99',  0.04302,  0.93778,  0.00000,  0.00,  0.00,  0.00,  0.00000,  0.000,  0.00000,  0.00000,  0.00000,  0.00000,  1
1072,  1076,  '99',  0.01719,  0.46455,  0.00000,  0.00,  0.00,  0.00,  0.00000,  0.000,  0.00000,  0.00000,  0.00000,  0.00000,  1
1072,  1077,  '99',  0.06989,  1.13334,  0.00000,  0.00,  0.00,  0.00,  0.00000,  0.000,  0.00000,  0.00000,  0.00000,  0.00000,  1
1072,  1081,  '99',  0.02245,  0.61047,  0.00000,  0.00,  0.00,  0.00,  0.00000,  0.000,  0.00000,  0.00000,  0.00000,  0.00000,  1
1072,  3048,  '99',  0.01848,  0.45197,  0.00000,  0.00,  0.00,  0.00,  0.00000,  0.000,  0.00000,  0.00000,  0.00000,  0.00000,  1
1073,  1074,  '99',  0.16520,  1.78166,  0.00000,  0.00,  0.00,  0.00,  0.00000,  0.000,  0.00000,  0.00000,  0.00000,  0.00000,  1
1073,  1075,  '99',  0.11971,  1.42657,  0.00000,  0.00,  0.00,  0.00,  0.00000,  0.000,  0.00000,  0.00000,  0.00000,  0.00000,  1
1073,  1076,  '99',  0.05302,  0.70692,  0.00000,  0.00,  0.00,  0.00,  0.00000,  0.000,  0.00000,  0.00000,  0.00000,  0.00000,  1
1073,  1077,  '99',  0.17196,  1.72301,  0.00000,  0.00,  0.00,  0.00,  0.00000,  0.000,  0.00000,  0.00000,  0.00000,  0.00000,  1
1073,  1081,  '99',  0.06946,  0.92897,  0.00000,  0.00,  0.00,  0.00,  0.00000,  0.000,  0.00000,  0.00000,  0.00000,  0.00000,  1
1073,  3048,  '99',  0.05427,  0.68767,  0.00000,  0.00,  0.00,  0.00,  0.00000,  0.000,  0.00000,  0.00000,  0.00000,  0.00000,  1
1074,  1075,  '99',  0.04124,  1.36537,  0.00000,  0.00,  0.00,  0.00,  0.00000,  0.000,  0.00000,  0.00000,  0.00000,  0.00000,  1
1074,  1076,  '99',  0.01443,  0.67627,  0.00000,  0.00,  0.00,  0.00,  0.00000,  0.000,  0.00000,  0.00000,  0.00000,  0.00000,  1
1074,  1077,  '99',  0.07589,  1.65050,  0.00000,  0.00,  0.00,  0.00,  0.00000,  0.000,  0.00000,  0.00000,  0.00000,  0.00000,  1
1074,  1081,  '99',  0.01876,  0.88869,  0.00000,  0.00,  0.00,  0.00,  0.00000,  0.000,  0.00000,  0.00000,  0.00000,  0.00000,  1
1074,  3048,  '99',  0.01660,  0.65799,  0.00000,  0.00,  0.00,  0.00,  0.00000,  0.000,  0.00000,  0.00000,  0.00000,  0.00000,  1
1075,  1076,  '99',  0.00682,  0.54115,  0.00000,  0.00,  0.00,  0.00,  0.00000,  0.000,  0.00000,  0.00000,  0.00000,  0.00000,  1
1075,  1077,  '99',  0.04918,  1.32101,  0.00000,  0.00,  0.00,  0.00,  0.00000,  0.000,  0.00000,  0.00000,  0.00000,  0.00000,  1
1075,  1081,  '99',  0.00880,  0.71112,  0.00000,  0.00,  0.00,  0.00,  0.00000,  0.000,  0.00000,  0.00000,  0.00000,  0.00000,  1
1075,  3048,  '99',  0.00868,  0.52654,  0.00000,  0.00,  0.00,  0.00,  0.00000,  0.000,  0.00000,  0.00000,  0.00000,  0.00000,  1
1076,  1077,  '99',  0.01856,  0.65434,  0.00000,  0.00,  0.00,  0.00,  0.00000,  0.000,  0.00000,  0.00000,  0.00000,  0.00000,  1
1076,  1081,  '99',  0.00124,  0.35216,  0.00000,  0.00,  0.00,  0.00,  0.00000,  0.000,  0.00000,  0.00000,  0.00000,  0.00000,  1
1076,  3048,  '99',  0.00199,  0.26077,  0.00000,  0.00,  0.00,  0.00,  0.00000,  0.000,  0.00000,  0.00000,  0.00000,  0.00000,  1
1077,  1081,  '99',  0.02419,  0.85986,  0.00000,  0.00,  0.00,  0.00,  0.00000,  0.000,  0.00000,  0.00000,  0.00000,  0.00000,  1
1077,  3048,  '99',  0.02053,  0.63663,  0.00000,  0.00,  0.00,  0.00,  0.00000,  0.000,  0.00000,  0.00000,  0.00000,  0.00000,  1
1081,  2057,  '99',  0.51552,  3.55096,  0.00000,  0.00,  0.00,  0.00,  0.00000,  0.000,  0.00000,  0.00000,  0.00000,  0.00000,  1
1081,  3008,  '99',  0.99371,  4.31768,  0.00000,  0.00,  0.00,  0.00,  0.00000,  0.000,  0.00000,  0.00000,  0.00000,  0.00000,  1
1081,  3018,  '99',  0.05178,  0.51724,  0.00000,  0.00,  0.00,  0.00,  0.00000,  0.000,  0.00000,  0.00000,  0.00000,  0.00000,  1
1081,  3019,  '99',  0.49697,  3.34266,  0.00000,  0.00,  0.00,  0.00,  0.00000,  0.000,  0.00000,  0.00000,  0.00000,  0.00000,  1
1081,  3045,  '99',  0.03194,  0.75030,  0.00000,  0.00,  0.00,  0.00,  0.00000,  0.000,  0.00000,  0.00000,  0.00000,  0.00000,  1
1081,  3048,  '99',  0.00865,  0.13842,  0.00000,  0.00,  0.00,  0.00,  0.00000,  0.000,  0.00000,  0.00000,  0.00000,  0.00000,  1
1081,  5413,  '99',  0.28539,  2.59144,  0.00000,  0.00,  0.00,  0.00,  0.00000,  0.000,  0.00000,  0.00000,  0.00000,  0.00000,  1
2004,  2005,  '99',  -0.00117,  0.07976,  0.00000,  0.00,  0.00,  0.00,  0.00000,  0.000,  0.00000,  0.00000,  0.00000,  0.00000,  1
2004,  2006,  '99',  -0.00255,  0.12464,  0.00000,  0.00,  0.00,  0.00,  0.00000,  0.000,  0.00000,  0.00000,  0.00000,  0.00000,  1
2004,  2024,  '99',  0.00592,  0.45038,  0.00000,  0.00,  0.00,  0.00,  0.00000,  0.000,  0.00000,  0.00000,  0.00000,  0.00000,  1
2004,  2115,  '99',  0.03085,  0.97155,  0.00000,  0.00,  0.00,  0.00,  0.00000,  0.000,  0.00000,  0.00000,  0.00000,  0.00000,  1
2004,  2116,  '99',  0.01276,  0.50642,  0.00000,  0.00,  0.00,  0.00,  0.00000,  0.000,  0.00000,  0.00000,  0.00000,  0.00000,  1
2004,  2117,  '99',  0.02405,  1.12514,  0.00000,  0.00,  0.00,  0.00,  0.00000,  0.000,  0.00000,  0.00000,  0.00000,  0.00000,  1
2004,  2118,  '99',  0.03078,  1.24595,  0.00000,  0.00,  0.00,  0.00,  0.00000,  0.000,  0.00000,  0.00000,  0.00000,  0.00000,  1
2004,  2119,  '99',  0.01582,  0.61640,  0.00000,  0.00,  0.00,  0.00,  0.00000,  0.000,  0.00000,  0.00000,  0.00000,  0.00000,  1
2004,  2120,  '99',  0.03173,  1.19738,  0.00000,  0.00,  0.00,  0.00,  0.00000,  0.000,  0.00000,  0.00000,  0.00000,  0.00000,  1
2004,  5021,  '99',  0.09401,  1.04666,  0.00000,  0.00,  0.00,  0.00,  0.00000,  0.000,  0.00000,  0.00000,  0.00000,  0.00000,  1
2004,  5037,  '99',  0.06464,  2.40177,  0.00000,  0.00,  0.00,  0.00,  0.00000,  0.000,  0.00000,  0.00000,  0.00000,  0.00000,  1
2004,  5038,  '99',  0.06181,  2.47887,  0.00000,  0.00,  0.00,  0.00,  0.00000,  0.000,  0.00000,  0.00000,  0.00000,  0.00000,  1
2004,  5039,  '99',  0.03170,  1.09024,  0.00000,  0.00,  0.00,  0.00,  0.00000,  0.000,  0.00000,  0.00000,  0.00000,  0.00000,  1
2004,  5040,  '99',  0.10854,  3.24484,  0.00000,  0.00,  0.00,  0.00,  0.00000,  0.000,  0.00000,  0.00000,  0.00000,  0.00000,  1
2004,  5041,  '99',  0.07436,  2.25541,  0.00000,  0.00,  0.00,  0.00,  0.00000,  0.000,  0.00000,  0.00000,  0.00000,  0.00000,  1
2004,  5042,  '99',  0.06440,  2.65666,  0.00000,  0.00,  0.00,  0.00,  0.00000,  0.000,  0.00000,  0.00000,  0.00000,  0.00000,  1
2004,  5047,  '99',  0.09430,  1.31513,  0.00000,  0.00,  0.00,  0.00,  0.00000,  0.000,  0.00000,  0.00000,  0.00000,  0.00000,  1
2004,  5063,  '99',  0.01375,  0.17131,  0.00000,  0.00,  0.00,  0.00,  0.00000,  0.000,  0.00000,  0.00000,  0.00000,  0.00000,  1
2004,  5166,  '99',  -0.00091,  2.18737,  0.00000,  0.00,  0.00,  0.00,  0.00000,  0.000,  0.00000,  0.00000,  0.00000,  0.00000,  1
2004,  5179,  '99',  0.11775,  1.76849,  0.00000,  0.00,  0.00,  0.00,  0.00000,  0.000,  0.00000,  0.00000,  0.00000,  0.00000,  1
...